Version 4
SHEET 1 1932 1080
WIRE -512 -384 -544 -384
WIRE 32 -352 16 -352
WIRE 176 -352 112 -352
WIRE 672 -336 656 -336
WIRE 816 -336 752 -336
WIRE -192 -288 -192 -304
WIRE -144 -288 -192 -288
WIRE -192 -256 -192 -288
WIRE 16 -240 16 -352
WIRE 64 -240 16 -240
WIRE 176 -240 176 -352
WIRE 176 -240 128 -240
WIRE 656 -224 656 -336
WIRE 704 -224 656 -224
WIRE 816 -224 816 -336
WIRE 816 -224 768 -224
WIRE -96 -80 -160 -80
WIRE 16 -80 16 -240
WIRE 16 -80 -16 -80
WIRE 48 -80 16 -80
WIRE -432 -64 -448 -64
WIRE -304 -64 -352 -64
WIRE 176 -64 176 -240
WIRE 176 -64 112 -64
WIRE 256 -64 176 -64
WIRE 544 -64 480 -64
WIRE 656 -64 656 -224
WIRE 656 -64 624 -64
WIRE 688 -64 656 -64
WIRE -480 -48 -512 -48
WIRE 48 -48 32 -48
WIRE 816 -48 816 -224
WIRE 816 -48 752 -48
WIRE 896 -48 816 -48
WIRE 688 -32 672 -32
WIRE 32 -16 32 -48
WIRE 672 0 672 -32
WIRE -480 48 -480 -48
WIRE -480 48 -512 48
WIRE -448 48 -448 -64
WIRE -448 48 -480 48
WIRE -432 48 -448 48
WIRE 144 48 96 48
WIRE -304 64 -304 -64
WIRE -304 64 -368 64
WIRE -240 64 -304 64
WIRE -432 80 -448 80
WIRE 640 80 624 80
WIRE 768 80 720 80
WIRE -480 144 -480 48
WIRE -480 144 -512 144
WIRE -448 144 -448 80
WIRE -32 176 -64 176
WIRE 96 176 96 48
WIRE 96 176 48 176
WIRE 128 176 96 176
WIRE 224 192 224 48
WIRE 224 192 192 192
WIRE 272 192 224 192
WIRE 544 192 512 192
WIRE 624 192 624 80
WIRE 624 192 608 192
WIRE 656 192 624 192
WIRE 128 208 96 208
WIRE 768 208 768 80
WIRE 768 208 720 208
WIRE 864 208 768 208
WIRE 656 224 640 224
WIRE -480 240 -480 144
WIRE -480 240 -528 240
WIRE 96 240 96 208
WIRE 640 256 640 224
WIRE 448 320 400 320
WIRE -32 336 -208 336
WIRE -208 448 -208 336
WIRE -176 448 -208 448
WIRE 272 448 240 448
WIRE 400 448 400 320
WIRE 400 448 352 448
WIRE 432 448 400 448
WIRE -32 464 -32 416
WIRE -32 464 -112 464
WIRE 16 464 -32 464
WIRE 528 464 528 320
WIRE 528 464 496 464
WIRE 576 464 528 464
WIRE -176 480 -256 480
WIRE 432 480 400 480
WIRE 400 512 400 480
FLAG -144 -288 0
FLAG -192 -384 V+
FLAG -192 -176 V-
FLAG 80 -96 V+
FLAG 80 -32 V-
FLAG 256 -64 -dy_dt
IOPIN 256 -64 Out
FLAG -432 -384 x_t
IOPIN -432 -384 Out
FLAG 720 -80 V+
FLAG 720 -16 V-
FLAG 896 -48 y
IOPIN 896 -48 Out
FLAG 480 -64 -dy_dt
IOPIN 480 -64 In
FLAG -400 32 V+
FLAG -400 96 V-
FLAG -240 64 SUM
IOPIN -240 64 Out
FLAG -448 144 0
FLAG -160 -80 SUM
IOPIN -160 -80 In
FLAG 96 240 0
FLAG -64 176 -dy_dt
IOPIN -64 176 In
FLAG 272 192 g*dy_dt
IOPIN 272 192 Out
FLAG 400 512 0
FLAG 240 448 x_t
IOPIN 240 448 In
FLAG 576 464 -x_t
IOPIN 576 464 Out
FLAG -592 -48 -x_t
IOPIN -592 -48 In
FLAG -592 144 w2*y
IOPIN -592 144 In
FLAG -592 48 g*dy_dt
IOPIN -592 48 In
FLAG 464 432 V+
FLAG 160 160 V+
FLAG 464 496 V-
FLAG 160 224 V-
FLAG -624 -384 0
FLAG 32 -16 0
FLAG 672 0 0
FLAG -144 432 V+
FLAG -144 496 V-
FLAG -256 480 y
IOPIN -256 480 In
FLAG -32 256 0
FLAG 16 464 w2*y
IOPIN 16 464 Out
FLAG 688 176 V+
FLAG 688 240 V-
FLAG 640 256 0
FLAG 512 192 -x_t
IOPIN 512 192 In
FLAG 864 208 x_t_diff
IOPIN 864 208 Out
FLAG -608 240 x_t_diff
IOPIN -608 240 In
SYMBOL OpAmps\\LT1001 80 -128 R0
SYMATTR InstName U1
SYMBOL res -112 -96 M90
WINDOW 0 0 56 VBottom 2
WINDOW 3 32 56 VTop 2
SYMATTR InstName R1
SYMATTR Value 10k
SYMBOL voltage -416 -384 R90
WINDOW 0 -32 56 VBottom 2
WINDOW 3 32 56 VTop 2
WINDOW 123 60 56 VTop 2
WINDOW 39 0 0 Left 0
SYMATTR InstName V1
SYMATTR Value PULSE(-2.5 2.5 4 1u 1u 4 8 10)
SYMATTR Value2 AC 1
SYMBOL voltage -192 -400 R0
WINDOW 123 0 0 Left 0
WINDOW 39 0 0 Left 0
SYMATTR InstName V2
SYMATTR Value 15
SYMBOL voltage -192 -272 R0
WINDOW 123 0 0 Left 0
WINDOW 39 0 0 Left 0
SYMATTR InstName V3
SYMATTR Value 15
SYMBOL cap 128 -256 R90
WINDOW 0 0 32 VBottom 2
WINDOW 3 32 32 VTop 2
SYMATTR InstName C1
SYMATTR Value 100µ
SYMBOL res 128 -368 R90
WINDOW 0 0 56 VBottom 2
WINDOW 3 32 56 VTop 2
SYMATTR InstName R2
SYMATTR Value 1Meg
SYMBOL OpAmps\\LT1001 720 -112 R0
SYMATTR InstName U2
SYMBOL res 528 -80 M90
WINDOW 0 0 56 VBottom 2
WINDOW 3 32 56 VTop 2
SYMATTR InstName R4
SYMATTR Value 10k
SYMBOL cap 768 -240 R90
WINDOW 0 0 32 VBottom 2
WINDOW 3 32 32 VTop 2
SYMATTR InstName C2
SYMATTR Value 100µ
SYMBOL res 768 -352 R90
WINDOW 0 0 56 VBottom 2
WINDOW 3 32 56 VTop 2
SYMATTR InstName R5
SYMATTR Value 1Meg
SYMBOL OpAmps\\LT1001 -400 0 R0
SYMATTR InstName U3
SYMBOL res -496 128 R90
WINDOW 0 0 56 VBottom 2
WINDOW 3 32 56 VTop 2
SYMATTR InstName R7
SYMATTR Value 10k
SYMBOL res -496 32 R90
WINDOW 0 0 56 VBottom 2
WINDOW 3 32 56 VTop 2
SYMATTR InstName R8
SYMATTR Value 10k
SYMBOL res -496 -64 R90
WINDOW 0 0 56 VBottom 2
WINDOW 3 32 56 VTop 2
SYMATTR InstName R9
SYMATTR Value 10k
SYMBOL res -336 -80 R90
WINDOW 0 0 56 VBottom 2
WINDOW 3 32 56 VTop 2
SYMATTR InstName R10
SYMATTR Value 10k
SYMBOL OpAmps\\LT1001 160 128 R0
SYMATTR InstName U4
SYMBOL res 240 32 R90
WINDOW 0 0 56 VBottom 2
WINDOW 3 32 56 VTop 2
SYMATTR InstName g
SYMATTR Value 20k
SYMBOL res 64 160 R90
WINDOW 0 0 56 VBottom 2
WINDOW 3 32 56 VTop 2
SYMATTR InstName R12
SYMATTR Value 10k
SYMBOL OpAmps\\LT1001 464 400 R0
SYMATTR InstName U7
SYMBOL res 544 304 R90
WINDOW 0 0 56 VBottom 2
WINDOW 3 32 56 VTop 2
SYMATTR InstName R17
SYMATTR Value 10k
SYMBOL res 368 432 R90
WINDOW 0 0 56 VBottom 2
WINDOW 3 32 56 VTop 2
SYMATTR InstName R18
SYMATTR Value 34k
SYMBOL voltage -528 -384 R90
WINDOW 0 -32 56 VBottom 2
WINDOW 3 32 56 VTop 2
WINDOW 123 0 0 Left 0
WINDOW 39 0 0 Left 0
SYMATTR InstName V4
SYMATTR Value ""
SYMBOL OpAmps\\LT1001 -144 400 R0
SYMATTR InstName U5
SYMBOL res -48 320 R0
SYMATTR InstName R3
SYMATTR Value 55k
SYMBOL res -48 240 R0
SYMATTR InstName R6
SYMATTR Value 1k
SYMBOL OpAmps\\LT1001 688 144 R0
SYMATTR InstName U6
SYMBOL cap 608 176 R90
WINDOW 0 0 32 VBottom 2
WINDOW 3 32 32 VTop 2
SYMATTR InstName C3
SYMATTR Value 100µ
SYMBOL res 736 64 R90
WINDOW 0 0 56 VBottom 2
WINDOW 3 32 56 VTop 2
SYMATTR InstName R11
SYMATTR Value 10k
SYMBOL res -512 224 R90
WINDOW 0 0 56 VBottom 2
WINDOW 3 32 56 VTop 2
SYMATTR InstName R13
SYMATTR Value 10k
TEXT -600 -288 Left 2 !;ac dec 100 1m 1k
TEXT -608 -232 Left 2 !.ic V(dy_dt) = 0
TEXT -624 -176 Left 2 !.tran 30
