Version 4
SHEET 1 1932 1080
WIRE 32 -352 16 -352
WIRE 176 -352 112 -352
WIRE 784 -336 768 -336
WIRE 928 -336 864 -336
WIRE -864 -288 -896 -288
WIRE 16 -240 16 -352
WIRE 64 -240 16 -240
WIRE 176 -240 176 -352
WIRE 176 -240 128 -240
WIRE 768 -224 768 -336
WIRE 816 -224 768 -224
WIRE 928 -224 928 -336
WIRE 928 -224 880 -224
WIRE -464 -208 -464 -224
WIRE -416 -208 -464 -208
WIRE -464 -176 -464 -208
WIRE -96 -80 -160 -80
WIRE 16 -80 16 -240
WIRE 16 -80 -16 -80
WIRE 48 -80 16 -80
WIRE 176 -64 176 -240
WIRE 176 -64 112 -64
WIRE 256 -64 176 -64
WIRE 656 -64 592 -64
WIRE 768 -64 768 -224
WIRE 768 -64 736 -64
WIRE 800 -64 768 -64
WIRE 48 -48 32 -48
WIRE 928 -48 928 -224
WIRE 928 -48 864 -48
WIRE 1008 -48 928 -48
WIRE 800 -32 784 -32
WIRE 32 -16 32 -48
WIRE 784 0 784 -32
WIRE -688 48 -704 48
WIRE -560 48 -608 48
WIRE -736 64 -768 64
WIRE -128 96 -176 96
WIRE 368 112 192 112
WIRE 864 112 816 112
WIRE -736 160 -736 64
WIRE -736 160 -768 160
WIRE -704 160 -704 48
WIRE -704 160 -736 160
WIRE -688 160 -704 160
WIRE -560 176 -560 48
WIRE -560 176 -624 176
WIRE -496 176 -560 176
WIRE -688 192 -704 192
WIRE -304 224 -336 224
WIRE -176 224 -176 96
WIRE -176 224 -224 224
WIRE -144 224 -176 224
WIRE 192 224 192 112
WIRE 224 224 192 224
WIRE -48 240 -48 96
WIRE -48 240 -80 240
WIRE 0 240 -48 240
WIRE 368 240 368 192
WIRE 368 240 288 240
WIRE 416 240 368 240
WIRE 688 240 656 240
WIRE 816 240 816 112
WIRE 816 240 768 240
WIRE 848 240 816 240
WIRE -736 256 -736 160
WIRE -736 256 -768 256
WIRE -704 256 -704 192
WIRE -144 256 -176 256
WIRE 224 256 144 256
WIRE 944 256 944 112
WIRE 944 256 912 256
WIRE 992 256 944 256
WIRE 848 272 816 272
WIRE -176 288 -176 256
WIRE 816 304 816 272
FLAG -416 -208 0
FLAG -464 -304 V+
FLAG -464 -96 V-
FLAG 80 -96 V+
FLAG 80 -32 V-
FLAG 256 -64 -dy_dt
IOPIN 256 -64 Out
FLAG -784 -288 x_t
IOPIN -784 -288 Out
FLAG 832 -80 V+
FLAG 832 -16 V-
FLAG 1008 -48 y
IOPIN 1008 -48 Out
FLAG 592 -64 -dy_dt
IOPIN 592 -64 In
FLAG -656 144 V+
FLAG -656 208 V-
FLAG -496 176 SUM
IOPIN -496 176 Out
FLAG -704 256 0
FLAG -160 -80 SUM
IOPIN -160 -80 In
FLAG 816 304 0
FLAG 656 240 -dy_dt
IOPIN 656 240 In
FLAG 992 256 g*dy_dt
IOPIN 992 256 Out
FLAG -176 288 0
FLAG -336 224 x_t
IOPIN -336 224 In
FLAG 0 240 -x_t
IOPIN 0 240 Out
FLAG -848 64 -x_t
IOPIN -848 64 In
FLAG -848 256 w2*y
IOPIN -848 256 In
FLAG -848 160 g*dy_dt
IOPIN -848 160 In
FLAG -112 208 V+
FLAG 880 224 V+
FLAG -112 272 V-
FLAG 880 288 V-
FLAG -976 -288 0
FLAG 32 -16 0
FLAG 784 0 0
FLAG 256 208 V+
FLAG 256 272 V-
FLAG 144 256 y
IOPIN 144 256 In
FLAG 368 32 0
FLAG 416 240 w2*y
IOPIN 416 240 Out
SYMBOL OpAmps\\LT1001 80 -128 R0
SYMATTR InstName U1
SYMBOL res -112 -96 M90
WINDOW 0 0 56 VBottom 2
WINDOW 3 32 56 VTop 2
SYMATTR InstName R1
SYMATTR Value 10k
SYMBOL voltage -768 -288 R90
WINDOW 0 -32 56 VBottom 2
WINDOW 3 32 56 VTop 2
WINDOW 123 60 56 VTop 2
WINDOW 39 0 0 Left 0
SYMATTR InstName V1
SYMATTR Value PULSE(-2.5 5 5 1u 1u 0.25 10 1)
SYMATTR Value2 AC 1
SYMBOL voltage -464 -320 R0
WINDOW 123 0 0 Left 0
WINDOW 39 0 0 Left 0
SYMATTR InstName V2
SYMATTR Value 15
SYMBOL voltage -464 -192 R0
WINDOW 123 0 0 Left 0
WINDOW 39 0 0 Left 0
SYMATTR InstName V3
SYMATTR Value 15
SYMBOL cap 128 -256 R90
WINDOW 0 0 32 VBottom 2
WINDOW 3 32 32 VTop 2
SYMATTR InstName C1
SYMATTR Value 100µ
SYMBOL res 128 -368 R90
WINDOW 0 0 56 VBottom 2
WINDOW 3 32 56 VTop 2
SYMATTR InstName R2
SYMATTR Value 1Meg
SYMBOL OpAmps\\LT1001 832 -112 R0
SYMATTR InstName U2
SYMBOL res 640 -80 M90
WINDOW 0 0 56 VBottom 2
WINDOW 3 32 56 VTop 2
SYMATTR InstName R4
SYMATTR Value 10k
SYMBOL cap 880 -240 R90
WINDOW 0 0 32 VBottom 2
WINDOW 3 32 32 VTop 2
SYMATTR InstName C2
SYMATTR Value 100µ
SYMBOL res 880 -352 R90
WINDOW 0 0 56 VBottom 2
WINDOW 3 32 56 VTop 2
SYMATTR InstName R5
SYMATTR Value 1Meg
SYMBOL OpAmps\\LT1001 -656 112 R0
SYMATTR InstName U3
SYMBOL res -752 240 R90
WINDOW 0 0 56 VBottom 2
WINDOW 3 32 56 VTop 2
SYMATTR InstName R7
SYMATTR Value 10k
SYMBOL res -752 144 R90
WINDOW 0 0 56 VBottom 2
WINDOW 3 32 56 VTop 2
SYMATTR InstName R8
SYMATTR Value 10k
SYMBOL res -752 48 R90
WINDOW 0 0 56 VBottom 2
WINDOW 3 32 56 VTop 2
SYMATTR InstName R9
SYMATTR Value 10k
SYMBOL res -592 32 R90
WINDOW 0 0 56 VBottom 2
WINDOW 3 32 56 VTop 2
SYMATTR InstName R10
SYMATTR Value 10k
SYMBOL OpAmps\\LT1001 880 192 R0
SYMATTR InstName U4
SYMBOL res 960 96 R90
WINDOW 0 0 56 VBottom 2
WINDOW 3 32 56 VTop 2
SYMATTR InstName g
SYMATTR Value 100k
SYMBOL res 784 224 R90
WINDOW 0 0 56 VBottom 2
WINDOW 3 32 56 VTop 2
SYMATTR InstName R12
SYMATTR Value 10k
SYMBOL OpAmps\\LT1001 -112 176 R0
SYMATTR InstName U7
SYMBOL res -32 80 R90
WINDOW 0 0 56 VBottom 2
WINDOW 3 32 56 VTop 2
SYMATTR InstName R17
SYMATTR Value 10k
SYMBOL res -208 208 R90
WINDOW 0 0 56 VBottom 2
WINDOW 3 32 56 VTop 2
SYMATTR InstName R18
SYMATTR Value 34k
SYMBOL voltage -880 -288 R90
WINDOW 0 -32 56 VBottom 2
WINDOW 3 32 56 VTop 2
WINDOW 123 0 0 Left 0
WINDOW 39 0 0 Left 0
SYMATTR InstName V4
SYMATTR Value ""
SYMBOL OpAmps\\LT1001 256 176 R0
SYMATTR InstName U5
SYMBOL res 352 96 R0
SYMATTR InstName R3
SYMATTR Value 55k
SYMBOL res 352 16 R0
SYMATTR InstName R6
SYMATTR Value 1k
TEXT -952 -192 Left 2 !;ac dec 100 1m 1k
TEXT -960 -136 Left 2 !.ic V(dy_dt) = 0
TEXT -960 -104 Left 2 !.tran 30
